test/data/case5_scopf.m
% NESTA v0.6.0
function mpc = nesta_case5_pjm
mpc.version = '2';
mpc.baseMVA = 100.0;

%% area data
%	area	refbus
mpc.areas = [
	1	 4;
];

%% bus data
%	bus_i	type	Pd	Qd	Gs	Bs	area	Vm	Va	baseKV	zone	Vmax	Vmin
mpc.bus = [
	1	 2	 0.0	 0.0	 0.0	 0.0	 1	    1.07762	    2.80377	 230.0	 1	    1.10000	    0.90000;
	2	 1	 300.0	 98.61	 0.0	 0.0	 1	    1.08407	   -0.73465	 230.0	 1	    1.10000	    0.90000;
	3	 2	 300.0	 98.61	 0.0	 0.0	 1	    1.10000	   -0.55972	 230.0	 1	    1.10000	    0.90000;
	4	 3	 400.0	 131.47	 0.0	 0.0	 1	    1.06414	    0.00000	 230.0	 1	    1.10000	    0.90000;
	5	 2	 0.0	 0.0	 0.0	 0.0	 1	    1.06907	    3.59033	 230.0	 1	    1.10000	    0.90000;
];

%% generator data
%	bus	Pg	Qg	Qmax	Qmin	Vg	mBase	status	Pmax	Pmin	Pc1	Pc2	Qc1min	Qc1max	Qc2min	Qc2max	ramp_agc	ramp_10	ramp_30	ramp_q	apf
mpc.gen = [
	1	 40.0	 30.0	 30.0	 -30.0	 1.07762	 100.0	 1	 40.0	 0.0	 0.0	 0.0	 0.0	 0.0	 0.0	 0.0	 0.0	 0.0	 0.0	 0.0	 0.0;
	1	 170.0	 127.5	 127.5	 -127.5	 1.07762	 100.0	 1	 170.0	 0.0	 0.0	 0.0	 0.0	 0.0	 0.0	 0.0	 0.0	 0.0	 0.0	 0.0	 0.0;
	3	 324.498	 390.0	 390.0	 -390.0	 1.1	 100.0	 1	 520.0	 0.0	 0.0	 0.0	 0.0	 0.0	 0.0	 0.0	 0.0	 0.0	 0.0	 0.0	 0.0;
	4	 0.0	 -10.802	 150.0	 -150.0	 1.06414	 100.0	 1	 200.0	 0.0	 0.0	 0.0	 0.0	 0.0	 0.0	 0.0	 0.0	 0.0	 0.0	 0.0	 0.0;
	5	 470.694	 -165.039	 450.0	 -450.0	 1.06907	 100.0	 1	 600.0	 0.0	 0.0	 0.0	 0.0	 0.0	 0.0	 0.0	 0.0	 0.0	 0.0	 0.0	 0.0;
];

%column_names% prated qrated pref qref
mpc.gen_rated = [
40.0    30.0    40.0      30.0
170.0   127.5   170.0     127.5
520.0   390.0     324.498 390.0
200.0   150.0     0.0       -10.802
600.0   450.0     470.694  -165.039
];

%% load data
%column_names%	load_bus	pref	qref status	qmax	qmin pmax	pmin prated qrated voll load_idx
mpc.sc_load = [
	1	 0.0     0.0    1	 0       0	 	 0       0.0    0.0  0.0    5000.0 1;
	2	 300.0     98.61  1	 98.61	 0	 	 300.0	 0.0    300.0  98.61  5000.0 2;
	3	 300.0     98.61  1	 98.61	 0	 	 300.0	 0.0    300.0  98.61  5000.0 4;
	4	 400.0     131.47 1	 131.47	 0	 	 400.0	 0.0    400.0  131.47 5000.0 6;
	5	 0.0	 0.0    1	 0       0	 	 0.0	 0.0    0.0  0.0    5000.0 7;
];


%% generator cost data
%	2	startup	shutdown	n	c(n-1)	...	c0
mpc.gencost = [
	2	 0.0	 0.0	 3	   0.000000	  14.000000	   0.000000;
	2	 0.0	 0.0	 3	   0.000000	  15.000000	   0.000000;
	2	 0.0	 0.0	 3	   0.000000	  30.000000	   0.000000;
	2	 0.0	 0.0	 3	   0.000000	  40.000000	   0.000000;
	2	 0.0	 0.0	 3	   0.000000	  10.000000	   0.000000;
];

%% branch data
%	fbus	tbus	r	x	b	rateA	rateB	rateC	ratio	angle	status	angmin	angmax
mpc.branch = [
	1	 2	 0.00281	 0.0281	 0.00712	 400.0	 400.0	 400.0	 0.0	 0.0	 1	 -30.0	 30.0;
	1	 4	 0.00304	 0.0304	 0.00658	 426	 426	 426	 0.0	 0.0	 1	 -30.0	 30.0;
	1	 5	 0.00064	 0.0064	 0.03126	 426	 426	 426	 0.0	 0.0	 1	 -30.0	 30.0;
	2	 3	 0.00108	 0.0108	 0.01852	 426	 426	 426	 0.0	 0.0	 1	 -30.0	 30.0;
	3	 4	 0.00297	 0.0297	 0.00674	 426	 426	 426	 0.0	 0.0	 1	 -30.0	 30.0;
	4	 5	 0.00297	 0.0297	 0.00674	 240.0	 240.0	 240.0	 0.0	 0.0	 1	 -30.0	 30.0;
];

%column_names%  g_shunt shiftable shift_fr shift_to shift_fr_max shift_fr_min shift_to_max shift_to_min tappable tap_fr tap_to tap_fr_max tap_fr_min tap_to_max tap_to_min
mpc.branch_variable_transformer = [
0   0   0  0 0   0 0 0						0 1 1 1 1 1 1;
0   0   0  0 0   0 0 0						0 1 1 1 1 1 1;
0   0   0  0 0   0 0 0						0 1 1 1 1 1 1;
0   0	0  0 30 -30 0 0                     0 1 1 1 1 1 1;
0   0   0  0 0   0 0 0						0 1 1 1.1 0.9 1 1;
0	0   0  0 0   0 0 0						0 1 1 1 1 1 1;
];

%column_names% prob branch_id1 branch_id2 branch_id3 gen_id1 gen_id2 gen_id3
mpc.contingencies = [
    0.98 0 0 0 0 0 0;
    0.005 2 0 0 0 0 0;
    0.005 0 0 0 1 0 0;
    0.0025 1 0 0 1 0 0;
    0.0025 3 0 0 1 0 0;
 ];
